/*--------------------------------*- C++ -*----------------------------------*\
| =========                 |                                                 |
| \\      /  F ield         | OpenFOAM: The Open Source CFD Toolbox           |
|  \\    /   O peration     | Version:  v1912                                 |
|   \\  /    A nd           | Website:  www.openfoam.com                      |
|    \\/     M anipulation  |                                                 |
\*---------------------------------------------------------------------------*/
// * * * * * * * * * * * * * * * * * * * * * * * * * * * * * * * * * * * * * //
FoamFile
{
    version         2;
    format          ascii;
    class           volVectorField;
    location        "0";
    object          U;
}

dimensions      [ 0 1 -1 0 0 0 0 ];

internalField   uniform ( 0 0 0 );

boundaryField
{
    floatingObject
    {
        type            floaterVelocity;
        slip            true;
        value           uniform ( 0 0 0 );
    }
    front
    {
        type            empty;
    }
    back
    {
        type            empty;
    }
    rim
    {
        type            pressureInletOutletVelocity;
        value           uniform ( 0 0 0 );
    }
}


// ************************************************************************* //
