/*--------------------------------*- C++ -*----------------------------------*\
| =========                 |                                                 |
| \\      /  F ield         | OpenFOAM: The Open Source CFD Toolbox           |
|  \\    /   O peration     | Version:  2206                                  |
|   \\  /    A nd           | Website:  www.openfoam.com                      |
|    \\/     M anipulation  |                                                 |
\*---------------------------------------------------------------------------*/
// * * * * * * * * * * * * * * * * * * * * * * * * * * * * * * * * * * * * * //
FoamFile
{
    version         2;
    format          ascii;
    class           dictionary;
    location        "0/uniform";
    object          floaters;
}

myBox
{
    centreOfRotation ( 2 0 0.4 );

    orientation     ( 1 0 0 0 1 0 0 0 1 );

    velocity        ( 0 0 0 );

    acceleration    ( 0 0 0 );

    angularVelocity           ( 0 0 0 );

    angularAcceleration        ( 0 0 0 );

    mass            12;

    centreOfMass    (2 0 0.4); 

    momentOfInertia           ( 1 0 0 0.15106368 0 1 );

    // Moving box centre from x = 2.3 to 2.0 with moveDynamicMesh
    initialCentreOfRotation (2.3 0 0.4);

    initialOrientation $orientation;

    initialCentreOfMass $initialCentreOfRotation;
}


// ************************************************************************* //