/*--------------------------------*- C++ -*----------------------------------*\
| =========                 |                                                 |
| \\      /  F ield         | OpenFOAM: The Open Source CFD Toolbox           |
|  \\    /   O peration     | Version:  plus                                  |
|   \\  /    A nd           | Web:      www.OpenFOAM.com                      |
|    \\/     M anipulation  |                                                 |
\*---------------------------------------------------------------------------*/
FoamFile
{
    version     2.0;
    format      ascii;
    class       volScalarField;
    object      phi;
}
// * * * * * * * * * * * * * * * * * * * * * * * * * * * * * * * * * * * * * //

dimensions      [0 2 -1 0 0 0 0];

internalField   uniform 0;

boundaryField
{
    floatingObject
    {
        type            rigidBodyVelocityPotential;
        value           uniform 0;
        CoR             (0 0 0);
        v               (0 0 0);
        omega           (0 0 1);
    }

    front
    {
        type            empty;
    }

    back
    {
        type            empty;
    }

    rim
    {
        type            fixedValue;
        value           uniform 0;
    }
}

// ************************************************************************* //
