/*--------------------------------*- C++ -*----------------------------------*\
| =========                 |                                                 |
| \\      /  F ield         | OpenFOAM: The Open Source CFD Toolbox           |
|  \\    /   O peration     | Version:  v1806                                 |
|   \\  /    A nd           | Web:      www.OpenFOAM.com                      |
|    \\/     M anipulation  |                                                 |
\*---------------------------------------------------------------------------*/
FoamFile
{
    version     2.0;
    format      ascii;
    class       dictionary;
    object      dynamicMeshDict;
}
// * * * * * * * * * * * * * * * * * * * * * * * * * * * * * * * * * * * * * //

dynamicFvMesh     dynamicPointDisplacementFvMesh;

solvers
{
    box
    {
        motionSolverLibs    (floaterMotion);
        motionSolver        floaterMeshMotionSolver;

        floaterMeshMotionSolverCoeffs
        {
            patches         (box);
            innerDistance   0.075;
            outerDistance   0.4;

            rotDirs   (1 1 1);
            linDirs   (1 1 1);
            MaddUpdateFreq  2;
            addedMassModel  pisoAddedMass;

            restraints
            {
                moorDynR1
                {
                    floaterMotionRestraint moorDynR1;
                }
            }
        }
    }
}


// ************************************************************************* //
