/*---------------------------------------------------------------------------*\
| =========                 |                                                 |
| \\      /  F ield         | OpenFOAM: The Open Source CFD Toolbox           |
|  \\    /   O peration     | Version:  1.3                                   |
|   \\  /    A nd           | Web:      http://www.openfoam.org               |
|    \\/     M anipulation  |                                                 |
\*---------------------------------------------------------------------------*/
FoamFile
{
    version     2.0;
    format      ascii;
    class       dictionary;
    location    "constant";
    object      waveDict;
}
// * * * * * * * * * * * * * * * * * * * * * * * * * * * * * * * * * * * * * //

waveType        regular;

waveTheory      StokesII;

genAbs          1;

absDir          0.0;

nPaddles        1;

wavePeriod      2.0;

waveHeight      0.12;

waveDir         0.0;

wavePhase       0.0;

tSmooth         2.0;

// ************************************************************************* //
