/*--------------------------------*- C++ -*----------------------------------*\
| =========                 |                                                 |
| \\      /  F ield         | OpenFOAM: The Open Source CFD Toolbox           |
|  \\    /   O peration     | Version:  v1806                                 |
|   \\  /    A nd           | Web:      www.OpenFOAM.com                      |
|    \\/     M anipulation  |                                                 |
\*---------------------------------------------------------------------------*/
FoamFile
{
    version     2.0;
    format      ascii;
    class       dictionary;
    location    "system";
    object      controlDict;
}
// * * * * * * * * * * * * * * * * * * * * * * * * * * * * * * * * * * * * * //

application     floatStepper;

startFrom       latestTime;

startTime       0;

stopAt          endTime;

endTime         200;

deltaT          0.1;

writeControl    adjustableRunTime;

writeInterval   1;

purgeWrite      0;

writeFormat     binary;

writePrecision  12;

writeCompression off;

timeFormat      general;

timePrecision   6;

runTimeModifiable yes;

adjustTimeStep  yes;

maxCo           0.5;
maxAlphaCo      0.5;
maxDeltaT       1;

libs ( waveModels );

functions
{
    floaterMotion
    {
        type           floaterStateWriter;
        libs           (floaterStateWriter);
        writeControl   timeStep;
        writeInterval  1;
        bodyName       box;
        classicWriteFormat false;
    }

    addedMass
    {
        type           addedMassWriter;
        libs           (addedMassWriter);
        writeControl   timeStep;
        writeInterval  1;
        bodyName       box;
    }

    forces
    {
        type            forces;
        libs            ("libforces.so");
        patches         (floatingObject);
        rhoInf          998.8;
        log             on;
        writeControl    timeStep;
        writeInterval   1;
        CofR            (0 0 0); //Note: Correct CofR?
    }
}

// ************************************************************************* //
