/*--------------------------------*- C++ -*----------------------------------*\
| =========                 |                                                 |
| \\      /  F ield         | OpenFOAM: The Open Source CFD Toolbox           |
|  \\    /   O peration     | Version:  2206                                  |
|   \\  /    A nd           | Website:  www.openfoam.com                      |
|    \\/     M anipulation  |                                                 |
\*---------------------------------------------------------------------------*/
// * * * * * * * * * * * * * * * * * * * * * * * * * * * * * * * * * * * * * //
FoamFile
{
    version         2;
    format          ascii;
    class           dictionary;
    location        "0/uniform";
    object          floaterMotionState;
}

centreOfRotation ( 0 0 0 );

orientation     ( 1 0 0 0 1 0 0 0 1 );

velocity        ( 0 0 0 );

acceleration    ( 0 0.111111 0 );

omega           ( 0 0 0 );

domegadt        ( 0 0 0 );


// ************************************************************************* //
