/*--------------------------------*- C++ -*----------------------------------*\
| =========                 |                                                 |
| \\      /  F ield         | OpenFOAM: The Open Source CFD Toolbox           |
|  \\    /   O peration     | Version:  v1806                                 |
|   \\  /    A nd           | Web:      www.OpenFOAM.com                      |
|    \\/     M anipulation  |                                                 |
\*---------------------------------------------------------------------------*/
FoamFile
{
    version     2.0;
    format      ascii;
    class       dictionary;
    object      dynamicMeshDict;
}
// * * * * * * * * * * * * * * * * * * * * * * * * * * * * * * * * * * * * * //

dynamicFvMesh        dynamicFloaterMotionSolversFvMesh;

solvers
{
    box
    {
        motionSolverLibs    ("libfloaterMotion.so");
        motionSolver        floaterMotion;

        floaterMotionCoeffs
        {
            patches         (floatingObject);
            innerDistance   10;
            outerDistance   60;

            linDirs         (1 1 1);
            rotDirs         (1 1 1);

            MaddUpdateFreq  1;
            addedMassModel  pisoAddedMass;

            restraints
            {
                #include "mooringDict"
            }
        }
    }
}

// ************************************************************************* //
