/*--------------------------------*- C++ -*----------------------------------*\
| =========                 |                                                 |
| \\      /  F ield         | OpenFOAM: The Open Source CFD Toolbox           |
|  \\    /   O peration     | Version:  2206                                  |
|   \\  /    A nd           | Website:  www.openfoam.com                      |
|    \\/     M anipulation  |                                                 |
\*---------------------------------------------------------------------------*/
// * * * * * * * * * * * * * * * * * * * * * * * * * * * * * * * * * * * * * //
FoamFile
{
    version         2;
    format          ascii;
    class           dictionary;
    location        "0/uniform";
    object          floaters;
}

box
{
    centreOfRotation ( 0 0 -0.016 );

    orientation     ( 1 0 0 0 1 0 0 0 1 );

    velocity        ( 0 0 0 );

    acceleration    ( 0 0 0 );

    angularVelocity           ( 0 0 0 );

    angularAcceleration        ( 0 0 0 );

    mass            3.148;

    centreOfMass    $centreOfRotation;

    momentOfInertia           (0.015 0 0 0.0167 0 0.021);

    initialCentreOfRotation $centreOfRotation;

    initialOrientation $orientation;

    initialCentreOfMass $initialCentreOfRotation;
}

// ************************************************************************* //