/*--------------------------------*- C++ -*----------------------------------*\
| =========                 |                                                 |
| \\      /  F ield         | OpenFOAM: The Open Source CFD Toolbox           |
|  \\    /   O peration     | Version:  v1806                                 |
|   \\  /    A nd           | Web:      www.OpenFOAM.com                      |
|    \\/     M anipulation  |                                                 |
\*---------------------------------------------------------------------------*/
FoamFile
{
    version     2.0;
    format      ascii;
    class       dictionary;
    location    "system";
    object      fvSolution;
}
// * * * * * * * * * * * * * * * * * * * * * * * * * * * * * * * * * * * * * //

solvers
{
    "alpha.water.*"
    {
        isoFaceTol      1e-6;
        surfCellTol     1e-6;
        nAlphaBounds    3;
        snapTol         1e-12;
        clip            true;
        reconstructionScheme isoAlpha;

        nAlphaSubCycles 1;
        nAlphaCorr      3;
        cAlpha          1;

        MULESCorr       yes;
        nLimiterIter    5;
        alphaApplyPrevCorr  yes;

        solver          smoothSolver;
        smoother        symGaussSeidel;
        tolerance       1e-8;
        relTol          0;
    }

    "pcorr.*"
    {
        solver          PCG;
        preconditioner
        {
            preconditioner  GAMG;
            tolerance       1e-5;
            relTol          0;
            smoother        DICGaussSeidel;
            cacheAgglomeration no;
        }

        tolerance       1e-05;
        relTol          0;
        maxIter         200;
    }

    p_rgh
    {
        solver          GAMG;
        tolerance       1e-8;
        relTol          0.01;
        smoother        DIC;
    }

    p_rghFinal
    {
        solver          PCG;
        preconditioner
        {
            preconditioner  GAMG;
            tolerance       1e-8;
            relTol          0;
            nVcycles        2;
            smoother        DICGaussSeidel;
            nPreSweeps      2;
        }

        tolerance       1e-8;
        relTol          0;
        maxIter         20;
    }

    "(U|k|epsilon)"
    {
        solver          smoothSolver;
        smoother        GaussSeidel;
        tolerance       1e-6;
        relTol          0.1;
        nSweeps         1;
    }

    "(U|k|epsilon)Final"
    {
        solver          smoothSolver;
        smoother        GaussSeidel;
        tolerance       1e-6;
        relTol          0;
        nSweeps         1;
    }
}

PIMPLE
{
    momentumPredictor   no;
    nOuterCorrectors    1;
    nCorrectors         3;
    nNonOrthogonalCorrectors 2;
    correctPhi          yes;
    checkMeshCourantNo  yes;
}

relaxationFactors
{
    equations
    {
        ".*" 1;
    }
}


// ************************************************************************* //
