/*--------------------------------*- C++ -*----------------------------------*\
| =========                 |                                                 |
| \\      /  F ield         | OpenFOAM: The Open Source CFD Toolbox           |
|  \\    /   O peration     | Version:  plus                                  |
|   \\  /    A nd           | Web:      www.OpenFOAM.com                      |
|    \\/     M anipulation  |                                                 |
\*---------------------------------------------------------------------------*/
FoamFile
{
    version     2.0;
    format      ascii;
    class       dictionary;
    location    "system";
    object      controlDict;
}
// * * * * * * * * * * * * * * * * * * * * * * * * * * * * * * * * * * * * * //

application     initialiseU;

startFrom       latestTime;

startTime       0;

stopAt          endTime;

endTime         6.3;

deltaT          0.5e-2;

writeControl    timeStep;

writeInterval   4;

purgeWrite      0;

writeFormat     ascii;

writePrecision  12;

writeCompression no;

timeFormat      general;

timePrecision   6;

runTimeModifiable yes;

adjustTimeStep  no;

maxCo           .5;
maxAlphaCo      .5;

maxDeltaT       1;


// ************************************************************************* //
