/*--------------------------------*- C++ -*----------------------------------*\
| =========                 |                                                 |
| \\      /  F ield         | OpenFOAM: The Open Source CFD Toolbox           |
|  \\    /   O peration     | Version:  v1806                                 |
|   \\  /    A nd           | Web:      www.OpenFOAM.com                      |
|    \\/     M anipulation  |                                                 |
\*---------------------------------------------------------------------------*/
FoamFile
{
    version     2.0;
    format      ascii;
    class       dictionary;
    object      blockMeshDict;
}
// * * * * * * * * * * * * * * * * * * * * * * * * * * * * * * * * * * * * * //

scale   1;

vertices
(
    (-12 -.5 -6)
    (12 -.5 -6)
    (12 .5 -6)
    (-12 .5 -6)
    (-12 -.5 6)
    (12 -.5 6)
    (12 .5 6)
    (-12 .5 6)
);

blocks
(
    hex (0 1 2 3 4 5 6 7) (192 1 96) simpleGrading (1 1 1)
);

edges
(
);

boundary
(
    rim
    {
        type patch;
        faces
        (
            (0 4 7 3)
            (2 6 5 1)
            (0 3 2 1)
            (4 5 6 7)
        );
    }
    front
    {
        type empty;
        faces
        (
            (0 1 5 4)
        );
    }
    back
    {
        type empty;
        faces
        (
            (3 7 6 2)
        );
    }
    floatingObject
    {
        type wall;
        faces ();
    }
);

mergePatchPairs
(
);

// ************************************************************************* //
