/*--------------------------------*- C++ -*----------------------------------*\
| =========                 |                                                 |
| \\      /  F ield         | OpenFOAM: The Open Source CFD Toolbox           |
|  \\    /   O peration     | Version:  2206                                  |
|   \\  /    A nd           | Website:  www.openfoam.com                      |
|    \\/     M anipulation  |                                                 |
\*---------------------------------------------------------------------------*/
FoamFile
{
    version     2.0;
    format      binary;
    arch        "LSB;label=32;scalar=64";
    class       polyBoundaryMesh;
    location    "constant/polyMesh";
    object      boundary;
}
// * * * * * * * * * * * * * * * * * * * * * * * * * * * * * * * * * * * * * //

7
(
    inlet
    {
        type            patch;
        nFaces          19;
        startFace       7288;
    }
    outlet
    {
        type            patch;
        nFaces          19;
        startFace       7307;
    }
    bottom
    {
        type            patch;
        nFaces          200;
        startFace       7326;
    }
    wall1
    {
        type            empty;
        inGroups        1(empty);
        nFaces          3760;
        startFace       7526;
    }
    wall2
    {
        type            empty;
        inGroups        1(empty);
        nFaces          3760;
        startFace       11286;
    }
    box
    {
        type            patch;
        nFaces          26;
        startFace       15046;
    }
    atmosphere
    {
        type            patch;
        nFaces          200;
        startFace       15072;
    }
)

// ************************************************************************* //
